CM Antenna Analysis using NEC
CM Discone Antenna
CM Evripidis Sidiropoulos
CE 
GW  1 20 0.0000 0.0000 0.3897 0.1591 0.1591 0.1647 0.0020
GW  2 20 0.0000 0.0000 0.3897 0.0000 0.2250 0.1647 0.0020
GW  3 20 0.0000 0.0000 0.3897 -0.1591 0.1591 0.1647 0.0020
GW  4 20 0.0000 0.0000 0.3897 -0.2250 0.0000 0.1647 0.0020
GW  5 20 0.0000 0.0000 0.3897 -0.1591 -0.1591 0.1647 0.0020
GW  6 20 0.0000 0.0000 0.3897 -0.0000 -0.2250 0.1647 0.0020
GW  7 20 0.0000 0.0000 0.3897 0.1591 -0.1591 0.1647 0.0020
GW  8 20 0.0000 0.0000 0.3897 0.2250 -0.0000 0.1647 0.0020
GW  9 20 0.0000 0.0000 0.4647 0.2652 0.2652 0.4647 0.0020
GW 10 20 0.0000 0.0000 0.4647 0.0000 0.3750 0.4647 0.0020
GW 11 20 0.0000 0.0000 0.4647 -0.2652 0.2652 0.4647 0.0020
GW 12 20 0.0000 0.0000 0.4647 -0.3750 0.0000 0.4647 0.0020
GW 13 20 0.0000 0.0000 0.4647 -0.2652 -0.2652 0.4647 0.0020
GW 14 20 0.0000 0.0000 0.4647 -0.0000 -0.3750 0.4647 0.0020
GW 15 20 0.0000 0.0000 0.4647 0.2652 -0.2652 0.4647 0.0020
GW 16 20 0.0000 0.0000 0.4647 0.3750 -0.0000 0.4647 0.0020
GW 17  1 0.0000 0.0000 0.4647 0.0000 0.0000 0.3897 0.0020
GE 0
EX 0 17 1 0 1 0
FR 0 1 0 0 200 0
