CM Antenna Analysis using NEC
CM Discone Antenna Remix
CM Evripidis Sidiropoulos
CE 
GW  1 20 0.0000 0.0000 0.3897 -0.4450 0.0000 0.0603 0.0020
GW  2 20 0.0000 0.0000 0.3897 0.4300 0.0000 0.0603 0.0020
GW  3 20 0.0000 0.0000 0.3897 -0.4054 0.0000 0.0603 0.0020
GW  4 20 0.0000 0.0000 0.3897 0.3718 0.0000 0.0603 0.0020
GW  5 20 0.0000 0.0000 0.3897 -0.3299 0.0000 0.0603 0.0020
GW  6 20 0.0000 0.0000 0.3897 0.2806 0.0000 0.0603 0.0020
GW  7 20 0.0000 0.0000 0.3897 -0.2250 0.0000 0.0603 0.0020
GW  8 20 0.0000 0.0000 0.3897 0.1644 0.0000 0.0603 0.0020
GW  9 20 0.0000 0.0000 0.3897 -0.3750 0.0000 0.3897 0.0020
GW 10 20 0.0000 0.0000 0.3897 0.3750 -0.0000 0.3897 0.0020
GE 0
EX 0 1 1 0 1 0
FR 0 1 0 0 200 0
