CM Start angle A1 = 0
CM Stop angle A2 = 360
CM Radial sections = 8
CM Circular sections = 3
CM Rotate X, Y, Z = 0, 0, 0
CM Move X, Y, Z = 0, 0, 0
CE
GW     2    3       .0       .0       .0      .02       .0       .0    .0006
GW     3    3      .02       .0       .0      .04       .0       .0    .0006
GW     4    3      .04       .0       .0      .06       .0       .0    .0006
GW     5    3       .0       .0       .0  .014142  .014142       .0    .0006
GW     6    3  .014142  .014142       .0  .028284  .028284       .0    .0006
GW     7    3  .028284  .028284       .0  .042426  .042426       .0    .0006
GW     8    3       .0       .0       .0       .0      .02       .0    .0006
GW     9    3       .0      .02       .0       .0      .04       .0    .0006
GW    10    3       .0      .04       .0       .0      .06       .0    .0006
GW    11    3       .0       .0       .0 -.014142  .014142       .0    .0006
GW    12    3 -.014142  .014142       .0 -.028284  .028284       .0    .0006
GW    13    3 -.028284  .028284       .0 -.042426  .042426       .0    .0006
GW    14    3       .0       .0       .0     -.02       .0       .0    .0006
GW    15    3     -.02       .0       .0     -.04       .0       .0    .0006
GW    16    3     -.04       .0       .0     -.06       .0       .0    .0006
GW    17    3       .0       .0       .0 -.014142 -.014142       .0    .0006
GW    18    3 -.014142 -.014142       .0 -.028284 -.028284       .0    .0006
GW    19    3 -.028284 -.028284       .0 -.042426 -.042426       .0    .0006
GW    20    3       .0       .0       .0       .0     -.02       .0    .0006
GW    21    3       .0     -.02       .0       .0     -.04       .0    .0006
GW    22    3       .0     -.04       .0       .0     -.06       .0    .0006
GW    23    3       .0       .0       .0  .014142 -.014142       .0    .0006
GW    24    3  .014142 -.014142       .0  .028284 -.028284       .0    .0006
GW    25    3  .028284 -.028284       .0  .042426 -.042426       .0    .0006
GW    26    3      .02       .0       .0  .014142  .014142       .0    .0006
GW    27    3  .014142  .014142       .0       .0      .02       .0    .0006
GW    28    3       .0      .02       .0 -.014142  .014142       .0    .0006
GW    29    3 -.014142  .014142       .0     -.02       .0       .0    .0006
GW    30    3     -.02       .0       .0 -.014142 -.014142       .0    .0006
GW    31    3 -.014142 -.014142       .0       .0     -.02       .0    .0006
GW    32    3       .0     -.02       .0  .014142 -.014142       .0    .0006
GW    33    3  .014142 -.014142       .0      .02       .0       .0    .0006
GW    34    5      .04       .0       .0  .028284  .028284       .0    .0006
GW    35    5  .028284  .028284       .0       .0      .04       .0    .0006
GW    36    5       .0      .04       .0 -.028284  .028284       .0    .0006
GW    37    5 -.028284  .028284       .0     -.04       .0       .0    .0006
GW    38    5     -.04       .0       .0 -.028284 -.028284       .0    .0006
GW    39    5 -.028284 -.028284       .0       .0     -.04       .0    .0006
GW    40    5       .0     -.04       .0  .028284 -.028284       .0    .0006
GW    41    5  .028284 -.028284       .0      .04       .0       .0    .0006
GW    42    8      .06       .0       .0  .042426  .042426       .0    .0006
GW    43    8  .042426  .042426       .0       .0      .06       .0    .0006
GW    44    8       .0      .06       .0 -.042426  .042426       .0    .0006
GW    45    8 -.042426  .042426       .0     -.06       .0       .0    .0006
GW    46    8     -.06       .0       .0 -.042426 -.042426       .0    .0006
GW    47    8 -.042426 -.042426       .0       .0     -.06       .0    .0006
GW    48    8       .0     -.06       .0  .042426 -.042426       .0    .0006
GW    49    8  .042426 -.042426       .0      .06       .0       .0    .0006
GE 0
FR 0 0 0 0 2500
